/*--------------------------------*- C++ -*----------------------------------*\ 
| =========                 |                                                 |
| \      /  F ield         | OpenFOAM: The Open Source CFD Toolbox           |
|  \    /   O peration     | Version:  v1812                                |
|   \  /    A nd           | Web:      www.OpenFOAM.com                      |
|    \/     M anipulation  |                                                 |
\*---------------------------------------------------------------------------*/
FoamFile
{
version     2.0;
format      ascii;
class       dictionary;
object     blockMeshDict;
}


// * * * * * * * * * * * * * * * * * * * * * * * * * * * * * * * * * * * * * // 

scale 1.0;

vertices
(
(-512 -512 0)
(512 -512 0)
(512 512 0)
(-512 512 0)
(-512 -512 256)
(512 -512 256)
(512 512 256)
(-512 512 256)
);

blocks
(
hex (0 1 2 3 4 5 6 7) (64 64 16) simpleGrading (1 1 1)
);
edges
(
);


boundary
(
lower
{
type wall;
faces
(
(0 3 2 1)
);
}
upper
{
type patch;
faces
(
(4 5 6 7)
);
}
west
{
type patch;
neighbourPatch east;
faces
(
(0 4 7 3)
);
}
east
{
type patch;
neighbourPatch west;
faces
(
(1 2 6 5)
);
}
north
{
type patch;
neighbourPatch south;
faces
(
(3 7 6 2)
);
}
south
{
type patch;
neighbourPatch north;
faces
(
(0 1 5 4)
);
}
);



mergePatchPairs
(
);

// ************************************************************************* // 

